Version 4
SHEET 1 880 680
WIRE -64 -32 -64 -80
WIRE -64 -32 -272 -32
WIRE -272 -16 -272 -32
WIRE -64 96 -64 -32
WIRE -368 176 -384 176
WIRE -272 176 -272 64
WIRE -272 176 -304 176
WIRE -224 176 -272 176
WIRE -112 176 -144 176
WIRE -528 208 -544 208
WIRE -64 224 -64 192
WIRE 80 224 -64 224
WIRE 272 224 144 224
WIRE 352 224 272 224
WIRE 560 224 352 224
WIRE -544 240 -544 208
WIRE 560 256 560 224
WIRE 272 272 272 224
WIRE -64 304 -64 224
WIRE -48 304 -64 304
WIRE -48 320 -128 320
WIRE -128 336 -128 320
WIRE -272 368 -272 336
WIRE 272 400 272 352
WIRE 560 416 560 336
WIRE -128 448 -128 416
WIRE -48 448 -48 336
WIRE -48 448 -128 448
FLAG -48 448 0
FLAG -64 -160 0
FLAG 352 224 Out
IOPIN 352 224 Out
FLAG 272 400 0
FLAG 560 416 0
FLAG -384 176 In
IOPIN -384 176 In
FLAG -528 208 In
IOPIN -528 208 In
FLAG -544 320 0
FLAG -272 368 0
SYMBOL nmos -112 96 R0
SYMATTR InstName M1
SYMATTR Value IRF510
SYMBOL Reguladores\\LM317 16 320 M270
SYMATTR InstName U1
SYMBOL res -144 320 R0
SYMATTR InstName R1
SYMATTR Value {R_c}
SYMBOL voltage -64 -64 R180
WINDOW 0 24 96 Left 2
WINDOW 3 24 16 Left 2
SYMATTR InstName V1
SYMATTR Value 24
SYMBOL res 256 256 R0
SYMATTR InstName R2
SYMATTR Value 5k
SYMBOL polcap 80 208 M90
WINDOW 0 0 32 VBottom 2
WINDOW 3 32 32 VTop 2
SYMATTR InstName C1
SYMATTR Value 470µ
SYMBOL res 544 240 R0
SYMATTR InstName R3
SYMATTR Value 32
SYMBOL voltage -544 224 R0
WINDOW 123 24 124 Left 2
WINDOW 39 0 0 Left 0
SYMATTR Value2 AC 1
SYMATTR InstName V2
SYMATTR Value SINE(12.3866 0.615 {freq})
SYMBOL cap -304 160 R90
WINDOW 0 0 32 VBottom 2
WINDOW 3 32 32 VTop 2
SYMATTR InstName C2
SYMATTR Value 1µ
SYMBOL res -128 160 R90
WINDOW 0 0 56 VBottom 2
WINDOW 3 32 56 VTop 2
SYMATTR InstName R4
SYMATTR Value 150
SYMBOL res -288 -32 R0
SYMATTR InstName R5
SYMATTR Value 47k
SYMBOL res -288 240 R0
SYMATTR InstName R6
SYMATTR Value 220k
TEXT -648 568 Left 2 !.tran 0 1.51 1.1 {1/(freq*200)}
TEXT -232 512 Left 2 !.four {freq} V(in) V(out)
TEXT -224 624 Left 2 !.param freq 1k
TEXT 16 608 Left 2 !.param R_c 12
