Version 4
SHEET 1 880 680
WIRE -176 -224 -192 -224
WIRE -192 -208 -192 -224
WIRE -192 -208 -336 -208
WIRE -816 -192 -816 -240
WIRE -192 -192 -192 -208
WIRE -336 -176 -336 -208
WIRE 80 -128 -128 -128
WIRE -32 -80 -48 -80
WIRE -144 -48 -464 -48
WIRE -128 -48 -128 -128
WIRE -80 -48 -128 -48
WIRE -48 -48 -48 -80
WIRE -848 -16 -864 -16
WIRE 80 -16 80 -128
WIRE 80 -16 16 -16
WIRE -864 16 -864 -16
WIRE -336 16 -336 -96
WIRE -144 16 -144 -48
WIRE -80 16 -144 16
WIRE -48 48 -48 16
WIRE -336 112 -336 96
WIRE 80 160 80 -16
WIRE 176 160 80 160
WIRE 448 160 240 160
WIRE 656 160 448 160
WIRE 656 192 656 160
WIRE 80 288 80 240
WIRE 656 352 656 272
FLAG -816 -112 0
FLAG 448 160 Out
IOPIN 448 160 Out
FLAG 80 288 0
FLAG 656 352 0
FLAG -464 -48 In
IOPIN -464 -48 In
FLAG -848 -16 In
IOPIN -848 -16 In
FLAG -864 96 0
FLAG -816 -240 +24
FLAG -48 -80 +24
FLAG -192 -224 +24
FLAG -48 48 0
FLAG -336 112 0
SYMBOL voltage -816 -208 R0
SYMATTR InstName V1
SYMATTR Value 24
SYMBOL res 64 144 R0
SYMATTR InstName R6
SYMATTR Value 5k
SYMBOL res 640 176 R0
SYMATTR InstName R7
SYMATTR Value 32
SYMBOL voltage -864 0 R0
WINDOW 123 24 124 Left 2
WINDOW 39 0 0 Left 0
SYMATTR Value2 AC 1
SYMATTR InstName V2
SYMATTR Value SINE(12.3866 0.615 {freq})
SYMBOL OpAmps\\NE5532 -64 -16 R0
SYMATTR InstName U2
SYMBOL cap 240 144 R90
WINDOW 0 0 32 VBottom 2
WINDOW 3 32 32 VTop 2
SYMATTR InstName Co
SYMATTR Value 1µf
SYMBOL res -352 -192 R0
SYMATTR InstName R5
SYMATTR Value 220k
SYMBOL res -352 0 R0
SYMATTR InstName R8
SYMATTR Value 10k
TEXT -816 376 Left 2 !.tran 0 1.51 1.1 {1/(freq*200)}
TEXT -400 320 Left 2 !.four {freq} V(in) V(out)
TEXT -392 432 Left 2 !.param freq 1k
TEXT -152 416 Left 2 !.param R_c 12
