Version 4
SHEET 1 960 680
WIRE -96 -112 -160 -112
WIRE 16 -112 -16 -112
WIRE 48 -112 16 -112
WIRE 176 -112 144 -112
WIRE 208 -112 176 -112
WIRE 432 -112 288 -112
WIRE -672 -80 -672 -112
WIRE 16 -64 16 -112
WIRE 176 -64 176 -112
WIRE 16 16 16 0
WIRE 96 16 96 0
WIRE 96 16 16 16
WIRE 176 16 176 0
WIRE 176 16 96 16
WIRE 96 32 96 16
WIRE 96 128 96 112
WIRE 272 128 96 128
WIRE 304 128 304 96
WIRE -576 144 -704 144
WIRE -160 144 -160 -112
WIRE -160 144 -320 144
WIRE 432 160 432 -112
WIRE 432 160 368 160
WIRE 640 160 432 160
WIRE -704 192 -704 144
WIRE 96 192 96 128
WIRE 272 192 224 192
WIRE 224 240 224 192
WIRE 304 240 304 192
WIRE 96 272 96 256
WIRE -704 320 -704 272
WIRE -160 384 -160 144
WIRE -96 384 -160 384
WIRE 48 384 -16 384
WIRE 208 384 144 384
WIRE 432 384 432 160
WIRE 432 384 288 384
FLAG 224 240 0
FLAG -320 144 In
IOPIN -320 144 In
FLAG 640 160 Out
IOPIN 640 160 Out
FLAG -704 320 0
FLAG -576 144 In
IOPIN -576 144 Out
FLAG -672 0 0
FLAG -672 -112 +24
IOPIN -672 -112 Out
FLAG 304 96 +24
IOPIN 304 96 Out
FLAG 304 240 0
SYMBOL res 80 16 R0
SYMATTR InstName RX
SYMATTR Value 17k
SYMBOL Potenci+¦metros\\P100k 96 384 R270
SYMATTR InstName U1
SYMBOL Potenci+¦metros\\P100k 96 -112 M90
SYMATTR InstName U2
SYMBOL cap 80 192 R0
SYMATTR InstName C1
SYMATTR Value 0.005µ
SYMBOL res 0 -128 R90
WINDOW 0 0 56 VBottom 2
WINDOW 3 32 56 VTop 2
SYMATTR InstName R1
SYMATTR Value 11k
SYMBOL res 304 -128 R90
WINDOW 0 0 56 VBottom 2
WINDOW 3 32 56 VTop 2
SYMATTR InstName R2
SYMATTR Value 11k
SYMBOL res 304 368 R90
WINDOW 0 0 56 VBottom 2
WINDOW 3 32 56 VTop 2
SYMATTR InstName R3
SYMATTR Value 3k6
SYMBOL res 0 368 R90
WINDOW 0 0 56 VBottom 2
WINDOW 3 32 56 VTop 2
SYMATTR InstName R4
SYMATTR Value 3k6
SYMBOL Misc\\signal -704 176 R0
WINDOW 123 24 132 Left 2
WINDOW 39 0 0 Left 2
SYMATTR Value2 AC 1
SYMATTR InstName V1
SYMATTR Value SINE(12.866 0.7 {freq})
SYMBOL OpAmps\\NE5532 288 160 R0
SYMATTR InstName U5
SYMBOL voltage -672 -96 R0
WINDOW 0 24 96 Left 2
WINDOW 3 24 16 Left 2
WINDOW 123 0 0 Left 0
WINDOW 39 0 0 Left 0
SYMATTR InstName V2
SYMATTR Value 24
SYMBOL cap 0 -64 R0
SYMATTR InstName C3
SYMATTR Value 0.5µ
SYMBOL cap 160 -64 R0
SYMATTR InstName C4
SYMATTR Value 0.5µ
TEXT -896 512 Left 2 !.step param a list 0 0.1 0.2 0.3 0.4 0.5 0.6 0.7 0.8 0.9 1
TEXT -600 384 Left 2 !.ac dec 10001 10 100k
TEXT -624 448 Left 2 !;tran 0 1.51 1.1 {1/(freq*200)}
TEXT -888 416 Left 2 !.param freq 1k
