Version 4
SHEET 1 920 752
WIRE -112 -48 -288 -48
WIRE 160 -48 160 -80
WIRE 160 -48 -112 -48
WIRE -288 64 -288 -48
WIRE 160 96 160 -48
WIRE -288 176 -288 144
WIRE -16 176 -288 176
WIRE 112 176 64 176
WIRE 160 224 160 192
WIRE 304 224 160 224
WIRE 496 224 368 224
WIRE 576 224 496 224
WIRE -288 240 -288 176
WIRE 496 272 496 224
WIRE -736 288 -752 288
WIRE -624 288 -672 288
WIRE -336 288 -624 288
WIRE 160 320 160 224
WIRE 176 320 160 320
WIRE -624 336 -624 288
WIRE 176 336 96 336
WIRE -384 352 -480 352
WIRE -336 352 -336 336
WIRE -336 352 -384 352
WIRE 96 352 96 336
WIRE -480 368 -480 352
WIRE -384 368 -384 352
WIRE -272 384 -272 336
WIRE -112 384 -112 -48
WIRE -112 384 -272 384
WIRE 496 400 496 352
WIRE -624 464 -624 416
WIRE -480 464 -480 432
WIRE -384 464 -384 448
WIRE -384 464 -480 464
WIRE -304 464 -304 336
WIRE 96 464 96 432
WIRE 176 464 176 352
WIRE 176 464 96 464
FLAG 176 464 0
FLAG 160 -160 0
FLAG -304 464 0
FLAG -384 464 0
FLAG -624 464 0
FLAG -752 288 In
IOPIN -752 288 In
FLAG 576 224 Out
IOPIN 576 224 Out
FLAG -816 528 In
IOPIN -816 528 In
FLAG -816 608 0
FLAG 496 400 0
SYMBOL nmos 112 96 R0
SYMATTR InstName M1
SYMATTR Value IRF510
SYMBOL Reguladores\\LM317 240 336 M270
SYMATTR InstName U1
SYMBOL res 80 336 R0
SYMATTR InstName R1
SYMATTR Value 10
SYMBOL voltage 160 -64 R180
WINDOW 0 24 96 Left 2
WINDOW 3 24 16 Left 2
SYMATTR InstName V1
SYMATTR Value 12
SYMBOL Tubes\\12AU7. -288 288 R0
SYMATTR InstName U2
SYMBOL res -368 352 M0
SYMATTR InstName R2
SYMATTR Value 150
SYMBOL polcap -464 368 M0
SYMATTR InstName C1
SYMATTR Value 100µ
SYMBOL cap -672 272 R90
WINDOW 0 0 32 VBottom 2
WINDOW 3 32 32 VTop 2
SYMATTR InstName C2
SYMATTR Value 2.2µ
SYMBOL res -640 320 R0
SYMATTR InstName R3
SYMATTR Value 100k
SYMBOL voltage -816 512 R0
WINDOW 123 24 124 Left 2
WINDOW 39 0 0 Left 0
SYMATTR Value2 AC 1
SYMATTR InstName V2
SYMATTR Value SINE(0 .01 {freq})
SYMBOL res 480 256 R0
SYMATTR InstName R4
SYMATTR Value 1k
SYMBOL polcap 304 208 M90
WINDOW 0 0 32 VBottom 2
WINDOW 3 32 32 VTop 2
SYMATTR InstName C3
SYMATTR Value 470µ
SYMBOL res -304 48 R0
SYMATTR InstName R5
SYMATTR Value 20k
SYMBOL res 80 160 R90
WINDOW 0 0 56 VBottom 2
WINDOW 3 32 56 VTop 2
SYMATTR InstName R6
SYMATTR Value 5k
TEXT -312 736 Left 2 !.tran 0 0.51 0.1 {1/(freq*1000)}
TEXT -352 600 Left 2 !.four {freq} V(Out)
TEXT 320 560 Left 2 !;.step dec param freq 10 100k 1
TEXT 328 608 Left 2 !.param freq 1k
TEXT -584 736 Left 2 !;ac dec 100 1 100k
