Version 4
SHEET 1 2368 776
WIRE -240 -432 -288 -432
WIRE -64 -432 -112 -432
WIRE -64 -400 -64 -432
WIRE -880 -384 -880 -416
WIRE -176 -288 -176 -368
WIRE -64 -288 -64 -320
WIRE -64 -288 -176 -288
WIRE -880 -128 -880 -160
WIRE -576 -48 -672 -48
WIRE -480 -48 -576 -48
WIRE -432 -48 -480 -48
WIRE -288 -48 -352 -48
WIRE 32 -48 -288 -48
WIRE 272 -48 32 -48
WIRE -672 -16 -672 -48
WIRE -576 -16 -576 -48
WIRE 32 32 32 -48
WIRE -672 80 -672 48
WIRE -576 80 -576 64
WIRE -576 80 -672 80
WIRE -480 80 -480 -48
WIRE -576 96 -576 80
WIRE 272 96 272 -48
WIRE -64 176 -96 176
WIRE 32 176 32 112
WIRE 32 176 0 176
WIRE 96 176 32 176
WIRE 224 176 176 176
WIRE -96 208 -96 176
WIRE 272 224 272 192
WIRE 416 224 272 224
WIRE 608 224 480 224
WIRE 688 224 608 224
WIRE 896 224 688 224
WIRE -288 240 -288 -48
WIRE 896 256 896 224
WIRE 608 272 608 224
WIRE -736 288 -752 288
WIRE -480 288 -480 160
WIRE -480 288 -672 288
WIRE -336 288 -480 288
WIRE 272 304 272 224
WIRE -976 320 -992 320
WIRE -160 336 -160 80
WIRE -160 336 -272 336
WIRE 32 336 32 320
WIRE -992 352 -992 320
WIRE -336 368 -336 336
WIRE -96 368 -96 208
WIRE -96 368 -336 368
WIRE 608 400 608 352
WIRE -336 416 -336 368
WIRE -304 416 -304 336
WIRE -160 416 -304 416
WIRE 896 416 896 336
WIRE -160 432 -160 416
WIRE -336 544 -336 496
WIRE -160 544 -160 512
FLAG -880 -48 0
FLAG -336 544 0
FLAG -752 288 In
IOPIN -752 288 In
FLAG 688 224 Out
IOPIN 688 224 Out
FLAG -976 320 In
IOPIN -976 320 In
FLAG -992 432 0
FLAG 608 400 0
FLAG 32 336 0
FLAG 896 416 0
FLAG -576 96 0
FLAG -96 208 Tube_cat
FLAG -160 544 0
FLAG -160 80 +6.3
IOPIN -160 80 In
FLAG 272 304 Current
IOPIN 272 304 Out
FLAG 272 -48 +24
IOPIN 272 -48 In
FLAG -880 -160 +24
IOPIN -880 -160 Out
FLAG -288 -432 Current
IOPIN -288 -432 In
FLAG -176 -288 0
FLAG -880 -304 0
FLAG -880 -416 +6.3
IOPIN -880 -416 Out
DATAFLAG 48 176 ""
DATAFLAG -336 368 ""
DATAFLAG -448 288 ""
DATAFLAG -288 96 ""
DATAFLAG -160 208 ""
SYMBOL nmos 224 96 R0
SYMATTR InstName M1
SYMATTR Value IRF510
SYMBOL res -80 -416 R0
SYMATTR InstName R1_c
SYMATTR Value 12
SYMBOL voltage -880 -144 R0
WINDOW 0 24 96 Left 2
WINDOW 3 24 16 Left 2
WINDOW 123 0 0 Left 0
WINDOW 39 0 0 Left 0
SYMATTR InstName V1
SYMATTR Value 24
SYMBOL Tubes\\12AU7. -288 288 R0
SYMATTR InstName U2
SYMBOL cap -672 272 R90
WINDOW 0 0 32 VBottom 2
WINDOW 3 32 32 VTop 2
SYMATTR InstName C2
SYMATTR Value 2.2µ
SYMBOL voltage -992 336 R0
WINDOW 123 24 124 Left 2
WINDOW 39 0 0 Left 0
SYMATTR Value2 AC 1
SYMATTR InstName V2
SYMATTR Value SINE(0 0.7 {freq})
SYMBOL res 592 256 R0
SYMATTR InstName R4
SYMATTR Value 5k
SYMBOL polcap 416 208 M90
WINDOW 0 0 32 VBottom 2
WINDOW 3 32 32 VTop 2
SYMATTR InstName C3
SYMATTR Value 470µ
SYMBOL cap 0 160 R90
WINDOW 0 0 32 VBottom 2
WINDOW 3 32 32 VTop 2
SYMATTR InstName C7
SYMATTR Value 1µ
SYMBOL res 16 16 R0
SYMATTR InstName R11
SYMATTR Value 47k
SYMBOL res 16 224 R0
SYMATTR InstName R12
SYMATTR Value 220k
SYMBOL res 880 240 R0
SYMATTR InstName R7
SYMATTR Value 32
SYMBOL res 192 160 R90
WINDOW 0 0 56 VBottom 2
WINDOW 3 32 56 VTop 2
SYMATTR InstName R6
SYMATTR Value 150
SYMBOL res -352 400 R0
SYMATTR InstName R2
SYMATTR Value {R_cat}
SYMBOL res -336 -64 R90
WINDOW 0 0 56 VBottom 2
WINDOW 3 32 56 VTop 2
SYMATTR InstName R8
SYMATTR Value 91k
SYMBOL res -592 -32 R0
SYMATTR InstName R9
SYMATTR Value 91k
SYMBOL cap -688 -16 R0
SYMATTR InstName C4
SYMATTR Value 100µ
SYMBOL res -496 64 R0
SYMATTR InstName R5
SYMATTR Value 10k
SYMBOL res -176 416 R0
SYMATTR InstName R1
SYMATTR Value 0.0001
SYMBOL Reguladores\\LM338T -176 -416 R0
SYMATTR InstName U3
SYMBOL voltage -880 -400 R0
WINDOW 0 24 96 Left 2
WINDOW 3 24 16 Left 2
WINDOW 123 0 0 Left 0
WINDOW 39 0 0 Left 0
SYMATTR InstName V3
SYMATTR Value 6.3
TEXT -456 736 Left 2 !.tran 0 1.51 1.1 {1/(freq*200)}
TEXT -496 600 Left 2 !.four {freq} V(in) V(tube_cat)  V(out)
TEXT 176 560 Left 2 !;.step dec param freq 10 100k 1
TEXT 184 608 Left 2 !.param freq 1k
TEXT -728 736 Left 2 !;ac dec 100 1 100k
TEXT -456 680 Left 2 !;tran 0 3.51 3.1 {1/(freq*5000)}
TEXT -1056 616 Left 2 ;SINE(0 0.01 {freq})
TEXT 184 696 Left 2 !;.step param R_cat 5k 30k 5k
TEXT 184 648 Left 2 !.param R_cat 30k
TEXT -304 -200 Left 2 ;Corrente para um canal\nAlterar resistor para fornecer \ndois canais em paralelo
TEXT -1216 -416 Left 2 ;Melhor um step down\nMP1584EN
