Version 4
SHEET 1 2368 776
WIRE -576 -48 -672 -48
WIRE -480 -48 -576 -48
WIRE -432 -48 -480 -48
WIRE -288 -48 -352 -48
WIRE 32 -48 -288 -48
WIRE 272 -48 272 -80
WIRE 272 -48 32 -48
WIRE -672 -16 -672 -48
WIRE -576 -16 -576 -48
WIRE 32 32 32 -48
WIRE -672 80 -672 48
WIRE -576 80 -576 64
WIRE -576 80 -672 80
WIRE -480 80 -480 -48
WIRE -576 96 -576 80
WIRE 272 96 272 -48
WIRE -64 176 -96 176
WIRE 32 176 32 112
WIRE 32 176 0 176
WIRE 96 176 32 176
WIRE 224 176 176 176
WIRE 272 224 272 192
WIRE 416 224 272 224
WIRE 608 224 480 224
WIRE 688 224 608 224
WIRE 896 224 688 224
WIRE -288 240 -288 -48
WIRE 32 240 32 176
WIRE 896 256 896 224
WIRE 608 272 608 224
WIRE -736 288 -752 288
WIRE -480 288 -480 160
WIRE -480 288 -672 288
WIRE -336 288 -480 288
WIRE 272 304 272 224
WIRE 288 304 272 304
WIRE -976 320 -992 320
WIRE 288 320 208 320
WIRE 32 336 32 320
WIRE 208 336 208 320
WIRE -992 352 -992 320
WIRE -336 368 -336 336
WIRE -144 368 -336 368
WIRE -96 368 -96 176
WIRE -96 368 -144 368
WIRE 608 400 608 352
WIRE -336 416 -336 368
WIRE 896 416 896 336
WIRE 208 448 208 416
WIRE 288 448 288 336
WIRE 288 448 208 448
WIRE -336 544 -336 496
FLAG 288 448 0
FLAG 272 -160 0
FLAG -336 544 0
FLAG -752 288 In
IOPIN -752 288 In
FLAG 688 224 Out
IOPIN 688 224 Out
FLAG -976 320 In
IOPIN -976 320 In
FLAG -992 432 0
FLAG 608 400 0
FLAG 32 336 0
FLAG 896 416 0
FLAG -576 96 0
FLAG -144 368 Tube_cat
DATAFLAG 48 176 ""
DATAFLAG -336 368 ""
DATAFLAG -448 288 ""
DATAFLAG -288 96 ""
SYMBOL nmos 224 96 R0
SYMATTR InstName M1
SYMATTR Value IRF510
SYMBOL Reguladores\\LM317 352 320 M270
SYMATTR InstName U1
SYMBOL res 192 320 R0
SYMATTR InstName R1
SYMATTR Value 22
SYMBOL voltage 272 -64 R180
WINDOW 0 24 96 Left 2
WINDOW 3 24 16 Left 2
SYMATTR InstName V1
SYMATTR Value 24
SYMBOL Tubes\\12AU7. -288 288 R0
SYMATTR InstName U2
SYMBOL cap -672 272 R90
WINDOW 0 0 32 VBottom 2
WINDOW 3 32 32 VTop 2
SYMATTR InstName C2
SYMATTR Value 2.2µ
SYMBOL voltage -992 336 R0
WINDOW 123 24 124 Left 2
WINDOW 39 0 0 Left 0
SYMATTR Value2 AC 1
SYMATTR InstName V2
SYMATTR Value SINE(0 0.7 {freq})
SYMBOL res 592 256 R0
SYMATTR InstName R4
SYMATTR Value 5k
SYMBOL polcap 416 208 M90
WINDOW 0 0 32 VBottom 2
WINDOW 3 32 32 VTop 2
SYMATTR InstName C3
SYMATTR Value 470µ
SYMBOL cap 0 160 R90
WINDOW 0 0 32 VBottom 2
WINDOW 3 32 32 VTop 2
SYMATTR InstName C7
SYMATTR Value 1µ
SYMBOL res 16 16 R0
SYMATTR InstName R11
SYMATTR Value 47k
SYMBOL res 16 224 R0
SYMATTR InstName R12
SYMATTR Value 220k
SYMBOL res 880 240 R0
SYMATTR InstName R7
SYMATTR Value 32
SYMBOL res 192 160 R90
WINDOW 0 0 56 VBottom 2
WINDOW 3 32 56 VTop 2
SYMATTR InstName R6
SYMATTR Value 150
SYMBOL res -352 400 R0
SYMATTR InstName R2
SYMATTR Value {R_cat}
SYMBOL res -336 -64 R90
WINDOW 0 0 56 VBottom 2
WINDOW 3 32 56 VTop 2
SYMATTR InstName R8
SYMATTR Value 91k
SYMBOL res -592 -32 R0
SYMATTR InstName R9
SYMATTR Value 91k
SYMBOL cap -688 -16 R0
SYMATTR InstName C4
SYMATTR Value 100µ
SYMBOL res -496 64 R0
SYMATTR InstName R5
SYMATTR Value 10k
TEXT -456 736 Left 2 !.tran 0 1.51 1.2 {1/(freq*200)}
TEXT -496 600 Left 2 !.four {freq} V(in) V(tube_plate) V(tube_cat)  V(out)
TEXT 176 560 Left 2 !;.step dec param freq 10 100k 1
TEXT 184 608 Left 2 !.param freq 1k
TEXT -728 736 Left 2 !;ac dec 100 1 100k
TEXT -456 680 Left 2 !;tran 0 3.51 3.1 {1/(freq*5000)}
TEXT -1056 616 Left 2 ;SINE(0 0.01 {freq})
TEXT 184 696 Left 2 !;.step param R_cat 5k 30k 5k
TEXT 184 648 Left 2 !.param R_cat 30k
