Version 4
SHEET 1 2368 776
WIRE 496 -208 384 -208
WIRE 656 -208 528 -208
WIRE 720 -208 656 -208
WIRE 832 -208 800 -208
WIRE 656 -176 656 -208
WIRE 1072 -176 1072 -336
WIRE 1088 -176 1072 -176
WIRE 1088 -160 1008 -160
WIRE 1008 -144 1008 -160
WIRE -880 -128 -880 -160
WIRE 512 -64 512 -208
WIRE 656 -64 656 -96
WIRE 656 -64 512 -64
WIRE -576 -48 -672 -48
WIRE -480 -48 -576 -48
WIRE -432 -48 -480 -48
WIRE -288 -48 -352 -48
WIRE 272 -48 -288 -48
WIRE 512 -32 512 -64
WIRE 1008 -32 1008 -64
WIRE 1088 -32 1088 -144
WIRE 1088 -32 1008 -32
WIRE -672 -16 -672 -48
WIRE -576 -16 -576 -48
WIRE -672 80 -672 48
WIRE -576 80 -576 64
WIRE -576 80 -672 80
WIRE -480 80 -480 -48
WIRE -576 96 -576 80
WIRE 272 96 272 -48
WIRE 208 144 160 144
WIRE 160 176 160 144
WIRE 160 176 -96 176
WIRE -96 208 -96 176
WIRE 272 224 272 192
WIRE 416 224 272 224
WIRE 608 224 480 224
WIRE 688 224 608 224
WIRE 896 224 688 224
WIRE -288 240 -288 -48
WIRE 896 256 896 224
WIRE 608 272 608 224
WIRE -736 288 -752 288
WIRE -480 288 -480 160
WIRE -480 288 -672 288
WIRE -336 288 -480 288
WIRE -976 320 -992 320
WIRE -160 336 -160 80
WIRE -160 336 -272 336
WIRE -992 352 -992 320
WIRE -336 368 -336 336
WIRE -96 368 -96 208
WIRE -96 368 -336 368
WIRE 272 400 272 224
WIRE 608 400 608 352
WIRE -336 416 -336 368
WIRE -304 416 -304 336
WIRE -160 416 -304 416
WIRE 896 416 896 336
WIRE -336 544 -336 496
WIRE -160 544 -160 416
FLAG 1088 -32 0
FLAG -880 -48 0
FLAG -336 544 0
FLAG -752 288 In
IOPIN -752 288 In
FLAG 688 224 Out
IOPIN 688 224 Out
FLAG -976 320 In
IOPIN -976 320 In
FLAG -992 432 0
FLAG 608 400 0
FLAG 896 416 0
FLAG -576 96 0
FLAG -96 208 Tube_cat
FLAG -160 544 0
FLAG 832 -208 0
FLAG 512 -32 +6.3
IOPIN 512 -32 Out
FLAG -160 80 +6.3
IOPIN -160 80 In
FLAG 1184 448 Current
IOPIN 1184 448 Out
FLAG 272 -48 +24
IOPIN 272 -48 In
FLAG 384 -208 +24
IOPIN 384 -208 In
FLAG -880 -160 +24
IOPIN -880 -160 Out
FLAG 272 400 Current
IOPIN 272 400 Out
FLAG 1072 -336 Current
IOPIN 1072 -336 In
DATAFLAG 48 176 ""
DATAFLAG -336 368 ""
DATAFLAG -448 288 ""
DATAFLAG -288 96 ""
DATAFLAG -160 208 ""
DATAFLAG 272 224 ""
SYMBOL Reguladores\\LM317 1152 -160 M270
SYMATTR InstName U1
SYMBOL res 992 -160 R0
SYMATTR InstName R1
SYMATTR Value 39
SYMBOL voltage -880 -144 R0
WINDOW 0 24 96 Left 2
WINDOW 3 24 16 Left 2
WINDOW 123 0 0 Left 0
WINDOW 39 0 0 Left 0
SYMATTR InstName V1
SYMATTR Value 24
SYMBOL Tubes\\12AU7. -288 288 R0
SYMATTR InstName U2
SYMBOL cap -672 272 R90
WINDOW 0 0 32 VBottom 2
WINDOW 3 32 32 VTop 2
SYMATTR InstName C2
SYMATTR Value 2.2µ
SYMBOL voltage -992 336 R0
WINDOW 123 24 124 Left 2
WINDOW 39 0 0 Left 0
SYMATTR Value2 AC 1
SYMATTR InstName V2
SYMATTR Value SINE(0 0.7 {freq})
SYMBOL res 592 256 R0
SYMATTR InstName R4
SYMATTR Value 5k
SYMBOL polcap 416 208 M90
WINDOW 0 0 32 VBottom 2
WINDOW 3 32 32 VTop 2
SYMATTR InstName C3
SYMATTR Value 470µ
SYMBOL res 880 240 R0
SYMATTR InstName R7
SYMATTR Value 32
SYMBOL res -352 400 R0
SYMATTR InstName R2
SYMATTR Value 15k
SYMBOL res -336 -64 R90
WINDOW 0 0 56 VBottom 2
WINDOW 3 32 56 VTop 2
SYMATTR InstName R8
SYMATTR Value 91k
SYMBOL res -592 -32 R0
SYMATTR InstName R9
SYMATTR Value 91k
SYMBOL cap -688 -16 R0
SYMATTR InstName C4
SYMATTR Value 100µ
SYMBOL res -496 64 R0
SYMATTR InstName R5
SYMATTR Value 10k
SYMBOL Reguladores\\LM317 512 -272 M0
SYMATTR InstName U3
SYMBOL res 640 -80 M180
WINDOW 0 36 76 Left 2
WINDOW 3 36 40 Left 2
SYMATTR InstName R1_reg
SYMATTR Value 560
SYMBOL res 816 -192 M270
WINDOW 0 32 56 VTop 2
WINDOW 3 0 56 VBottom 2
SYMATTR InstName R2_reg
SYMATTR Value 2k2
SYMBOL Darlingtons\\TIP122 256 144 R0
SYMATTR InstName U5
TEXT -456 736 Left 2 !.tran 0 1.51 1.2 {1/(freq*200)}
TEXT -496 600 Left 2 !.four {freq} V(in) V(tube_plate) V(tube_cat)  V(out)
TEXT 688 624 Left 2 !;.step dec param freq 10 100k 1
TEXT 696 672 Left 2 !.param freq 1k
TEXT -728 736 Left 2 !;ac dec 100 1 100k
TEXT -456 680 Left 2 !;tran 0 3.51 3.1 {1/(freq*5000)}
TEXT -1056 616 Left 2 ;SINE(0 0.01 {freq})
TEXT 696 760 Left 2 !;.step param R_cat 5k 30k 5k
TEXT 696 712 Left 2 !.param R_cat 30k
TEXT 960 24 Left 2 ;Corrente para um canal\nAlterar resistor para fornecer \ndois canais em paralelo
